
OS:Version,
  {26fd32e6-a59b-4719-bc8a-097dbbc91794}, !- Handle
  3.11.0;                                 !- Version Identifier

OS:Site,
  {d1d8fb19-a61b-46ca-93bf-d36eeacdadc3}, !- Handle
  Cuidad.Mexico.Central,                  !- Name
  39.7653,                                !- Latitude {deg}
  39.7653,                                !- Longitude {deg}
  -6,                                     !- Time Zone {hr}
  2303,                                   !- Elevation {m}
  ,                                       !- Terrain
  No;                                     !- Keep Site Location Information

OS:YearDescription,
  {bb14fede-705e-4119-a7df-4f44cd6a7963}, !- Handle
  ,                                       !- Calendar Year
  Sunday;                                 !- Day of Week for Start Day

OS:ClimateZones,
  {da3ec383-f981-49d0-80b2-7cc338f747b0}, !- Handle
  ASHRAE,                                 !- Climate Zone Institution Name 1
  ANSI/ASHRAE Standard 169,               !- Climate Zone Document Name 1
  2006,                                   !- Climate Zone Document Year 1
  ,                                       !- Climate Zone Value 1
  CEC,                                    !- Climate Zone Institution Name 2
  California Climate Zone Descriptions,   !- Climate Zone Document Name 2
  1995,                                   !- Climate Zone Document Year 2
  ;                                       !- Climate Zone Value 2

OS:Building,
  {28efa509-79b3-44ce-98f5-686af1f6164d}, !- Handle
  Building 1,                             !- Name
  ,                                       !- Building Sector Type
  -0,                                     !- North Axis {deg}
  ,                                       !- Nominal Floor to Floor Height {m}
  ,                                       !- Space Type Name
  {c3b1398f-1484-4305-9908-1bcb25d3ea22}, !- Default Construction Set Name
  ;                                       !- Default Schedule Set Name

OS:Facility,
  {020562a2-f801-4ae0-873c-b8a2cb85e9a3}; !- Handle

OS:SimulationControl,
  {8a8c73bd-f267-46bb-8da4-a970a3f79db7}; !- Handle

OS:Sizing:Parameters,
  {78ec0169-a5cf-40de-ba3a-5e2b8fd733f4}, !- Handle
  1.25,                                   !- Heating Sizing Factor
  1.15;                                   !- Cooling Sizing Factor

OS:Timestep,
  {9e328a21-7acc-4c04-bac3-d5136e60e539}, !- Handle
  6;                                      !- Number of Timesteps per Hour

OS:ShadowCalculation,
  {4ddeda98-e0f6-4ec0-8428-73de27b6aad3}, !- Handle
  PolygonClipping,                        !- Shading Calculation Method
  ,                                       !- Shading Calculation Update Frequency Method
  20,                                     !- Shading Calculation Update Frequency
  15000,                                  !- Maximum Figures in Shadow Overlap Calculations
  ,                                       !- Polygon Clipping Algorithm
  512,                                    !- Pixel Counting Resolution
  ,                                       !- Sky Diffuse Modeling Algorithm
  No,                                     !- Output External Shading Calculation Results
  No,                                     !- Disable Self-Shading Within Shading Zone Groups
  No;                                     !- Disable Self-Shading From Shading Zone Groups to Other Zones

OS:HeatBalanceAlgorithm,
  {e243fc81-0dcb-492e-b657-d1d881689c41}, !- Handle
  ConductionTransferFunction,             !- Algorithm
  200;                                    !- Surface Temperature Upper Limit {C}

OS:RunPeriod,
  {8a6f0234-d2ca-4c63-8f62-339554076e26}, !- Handle
  Run Period 1,                           !- Name
  1,                                      !- Begin Month
  1,                                      !- Begin Day of Month
  12,                                     !- End Month
  31,                                     !- End Day of Month
  ,                                       !- Use Weather File Holidays and Special Days
  ,                                       !- Use Weather File Daylight Saving Period
  ,                                       !- Apply Weekend Holiday Rule
  ,                                       !- Use Weather File Rain Indicators
  ,                                       !- Use Weather File Snow Indicators
  ;                                       !- Number of Times Runperiod to be Repeated

OS:LifeCycleCost:Parameters,
  {ab105bd6-ae38-46f1-94df-8f921527a4cf}, !- Handle
  ,                                       !- Analysis Type
  ,                                       !- Discounting Convention
  ,                                       !- Inflation Approach
  ,                                       !- Real Discount Rate
  ,                                       !- Nominal Discount Rate
  ,                                       !- Inflation
  ,                                       !- Base Date Month
  ,                                       !- Base Date Year
  ,                                       !- Service Date Month
  ,                                       !- Service Date Year
  ;                                       !- Length of Study Period in Years

OS:Space,
  {2c8f82d4-dc26-412e-9c4f-204479c9c882}, !- Handle
  S:Sala,                                 !- Name
  ,                                       !- Space Type Name
  ,                                       !- Default Construction Set Name
  ,                                       !- Default Schedule Set Name
  ,                                       !- Direction of Relative North {deg}
  ,                                       !- X Origin {m}
  ,                                       !- Y Origin {m}
  ,                                       !- Z Origin {m}
  {39e7a695-d249-4bc7-abfa-ea1877af5a18}, !- Building Story Name
  {04e1a6c5-7c5f-4fed-89be-db53dfb0bced}, !- Thermal Zone Name
  ,                                       !- Part of Total Floor Area
  ,                                       !- Design Specification Outdoor Air Object Name
  ;                                       !- Building Unit Name

OS:BuildingStory,
  {39e7a695-d249-4bc7-abfa-ea1877af5a18}, !- Handle
  PA,                                     !- Name
  3.1,                                    !- Nominal Z Coordinate {m}
  3.1,                                    !- Nominal Floor to Floor Height {m}
  ,                                       !- Default Construction Set Name
  ,                                       !- Default Schedule Set Name
  {48f88923-859e-40ca-a5a7-66c4b1604ad9}, !- Group Rendering Name
  3.1;                                    !- Nominal Floor to Ceiling Height {m}

OS:Rendering:Color,
  {48f88923-859e-40ca-a5a7-66c4b1604ad9}, !- Handle
  Rendering Color 1,                      !- Name
  17,                                     !- Rendering Red Value
  119,                                    !- Rendering Green Value
  51,                                     !- Rendering Blue Value
  255;                                    !- Rendering Alpha Value

OS:Space,
  {2a15163e-4a41-4be0-87c1-1c54c1410a59}, !- Handle
  S:RecamaraPB,                           !- Name
  ,                                       !- Space Type Name
  ,                                       !- Default Construction Set Name
  ,                                       !- Default Schedule Set Name
  ,                                       !- Direction of Relative North {deg}
  ,                                       !- X Origin {m}
  ,                                       !- Y Origin {m}
  ,                                       !- Z Origin {m}
  {b2c54914-03f0-4ce0-839f-03378fdfcb42}, !- Building Story Name
  {b64fcf03-ba44-4ba6-95d8-747ab4ab5f5b}, !- Thermal Zone Name
  ,                                       !- Part of Total Floor Area
  ,                                       !- Design Specification Outdoor Air Object Name
  ;                                       !- Building Unit Name

OS:BuildingStory,
  {b2c54914-03f0-4ce0-839f-03378fdfcb42}, !- Handle
  PB,                                     !- Name
  0,                                      !- Nominal Z Coordinate {m}
  3.1,                                    !- Nominal Floor to Floor Height {m}
  ,                                       !- Default Construction Set Name
  ,                                       !- Default Schedule Set Name
  {c3582291-fede-4b54-9856-995d1683f529}, !- Group Rendering Name
  3.1;                                    !- Nominal Floor to Ceiling Height {m}

OS:Rendering:Color,
  {c3582291-fede-4b54-9856-995d1683f529}, !- Handle
  Rendering Color 2,                      !- Name
  51,                                     !- Rendering Red Value
  34,                                     !- Rendering Green Value
  136,                                    !- Rendering Blue Value
  255;                                    !- Rendering Alpha Value

OS:Space,
  {56219c43-f5aa-4011-8f41-7d782496d95c}, !- Handle
  S:Escalera,                             !- Name
  ,                                       !- Space Type Name
  ,                                       !- Default Construction Set Name
  ,                                       !- Default Schedule Set Name
  ,                                       !- Direction of Relative North {deg}
  ,                                       !- X Origin {m}
  ,                                       !- Y Origin {m}
  ,                                       !- Z Origin {m}
  {b2c54914-03f0-4ce0-839f-03378fdfcb42}, !- Building Story Name
  {d7220255-84fc-4a7d-8232-d012d165c824}, !- Thermal Zone Name
  ,                                       !- Part of Total Floor Area
  ,                                       !- Design Specification Outdoor Air Object Name
  ;                                       !- Building Unit Name

OS:Space,
  {5424b674-058e-4e6e-8caf-4af00d8363d7}, !- Handle
  S:Comercio,                             !- Name
  ,                                       !- Space Type Name
  ,                                       !- Default Construction Set Name
  ,                                       !- Default Schedule Set Name
  ,                                       !- Direction of Relative North {deg}
  ,                                       !- X Origin {m}
  ,                                       !- Y Origin {m}
  ,                                       !- Z Origin {m}
  {b2c54914-03f0-4ce0-839f-03378fdfcb42}, !- Building Story Name
  {27208eab-72fd-4e5a-8701-23f3b42c9203}, !- Thermal Zone Name
  ,                                       !- Part of Total Floor Area
  ,                                       !- Design Specification Outdoor Air Object Name
  ;                                       !- Building Unit Name

OS:Space,
  {a4abef25-7282-41eb-8176-21cfa5f58306}, !- Handle
  S:RecamaraPA,                           !- Name
  ,                                       !- Space Type Name
  ,                                       !- Default Construction Set Name
  ,                                       !- Default Schedule Set Name
  ,                                       !- Direction of Relative North {deg}
  ,                                       !- X Origin {m}
  ,                                       !- Y Origin {m}
  ,                                       !- Z Origin {m}
  {39e7a695-d249-4bc7-abfa-ea1877af5a18}, !- Building Story Name
  {1c7a371e-e033-4a53-b5b1-32b727baaa60}, !- Thermal Zone Name
  ,                                       !- Part of Total Floor Area
  ,                                       !- Design Specification Outdoor Air Object Name
  ;                                       !- Building Unit Name

OS:Space,
  {01fea0ec-1d8b-405b-ba49-a9afe6ee3635}, !- Handle
  S:Bano,                                 !- Name
  ,                                       !- Space Type Name
  ,                                       !- Default Construction Set Name
  ,                                       !- Default Schedule Set Name
  ,                                       !- Direction of Relative North {deg}
  ,                                       !- X Origin {m}
  ,                                       !- Y Origin {m}
  ,                                       !- Z Origin {m}
  {b2c54914-03f0-4ce0-839f-03378fdfcb42}, !- Building Story Name
  {4a4afdf6-93d8-4f46-ac06-0ea2c89209e7}, !- Thermal Zone Name
  ,                                       !- Part of Total Floor Area
  ,                                       !- Design Specification Outdoor Air Object Name
  ;                                       !- Building Unit Name

OS:ThermalZone,
  {27208eab-72fd-4e5a-8701-23f3b42c9203}, !- Handle
  Comercio,                               !- Name
  1,                                      !- Multiplier
  ,                                       !- Ceiling Height {m}
  ,                                       !- Volume {m3}
  ,                                       !- Floor Area {m2}
  ,                                       !- Zone Inside Convection Algorithm
  ,                                       !- Zone Outside Convection Algorithm
  ,                                       !- Zone Conditioning Equipment List Name
  {6c26d2b9-cd3c-4413-989c-55a39c4ef7f3}, !- Zone Air Inlet Port List
  {5fef9cdb-8fdd-4a2c-8e3c-1b51cd9dc8ff}, !- Zone Air Exhaust Port List
  {8a404721-bb9b-43c8-ab7d-d81ffdbcb09f}, !- Zone Air Node Name
  {ae96f694-15f3-48d8-9ed7-2feffeeb8881}, !- Zone Return Air Port List
  ,                                       !- Primary Daylighting Control Name
  ,                                       !- Fraction of Zone Controlled by Primary Daylighting Control
  ,                                       !- Secondary Daylighting Control Name
  ,                                       !- Fraction of Zone Controlled by Secondary Daylighting Control
  ,                                       !- Illuminance Map Name
  {a125cc3b-bd59-4f9e-b660-34b5ff105af4}, !- Group Rendering Name
  ,                                       !- Thermostat Name
  No;                                     !- Use Ideal Air Loads

OS:Node,
  {f4e9384a-e73d-478d-b7c3-53b0a5e331b9}, !- Handle
  Node 1,                                 !- Name
  {8a404721-bb9b-43c8-ab7d-d81ffdbcb09f}, !- Inlet Port
  ;                                       !- Outlet Port

OS:Connection,
  {8a404721-bb9b-43c8-ab7d-d81ffdbcb09f}, !- Handle
  {27208eab-72fd-4e5a-8701-23f3b42c9203}, !- Source Object
  11,                                     !- Outlet Port
  {f4e9384a-e73d-478d-b7c3-53b0a5e331b9}, !- Target Object
  2;                                      !- Inlet Port

OS:PortList,
  {6c26d2b9-cd3c-4413-989c-55a39c4ef7f3}, !- Handle
  {27208eab-72fd-4e5a-8701-23f3b42c9203}; !- HVAC Component

OS:PortList,
  {5fef9cdb-8fdd-4a2c-8e3c-1b51cd9dc8ff}, !- Handle
  {27208eab-72fd-4e5a-8701-23f3b42c9203}; !- HVAC Component

OS:PortList,
  {ae96f694-15f3-48d8-9ed7-2feffeeb8881}, !- Handle
  {27208eab-72fd-4e5a-8701-23f3b42c9203}; !- HVAC Component

OS:Sizing:Zone,
  {c610a8ba-bc80-4960-8c5f-9a98c49b0c8b}, !- Handle
  {27208eab-72fd-4e5a-8701-23f3b42c9203}, !- Zone or ZoneList Name
  SupplyAirTemperature,                   !- Zone Cooling Design Supply Air Temperature Input Method
  14,                                     !- Zone Cooling Design Supply Air Temperature {C}
  11.11,                                  !- Zone Cooling Design Supply Air Temperature Difference {deltaC}
  SupplyAirTemperature,                   !- Zone Heating Design Supply Air Temperature Input Method
  40,                                     !- Zone Heating Design Supply Air Temperature {C}
  11.11,                                  !- Zone Heating Design Supply Air Temperature Difference {deltaC}
  0.0085,                                 !- Zone Cooling Design Supply Air Humidity Ratio {kg-H2O/kg-air}
  0.008,                                  !- Zone Heating Design Supply Air Humidity Ratio {kg-H2O/kg-air}
  ,                                       !- Zone Heating Sizing Factor
  ,                                       !- Zone Cooling Sizing Factor
  DesignDay,                              !- Cooling Design Air Flow Method
  ,                                       !- Cooling Design Air Flow Rate {m3/s}
  ,                                       !- Cooling Minimum Air Flow per Zone Floor Area {m3/s-m2}
  ,                                       !- Cooling Minimum Air Flow {m3/s}
  ,                                       !- Cooling Minimum Air Flow Fraction
  DesignDay,                              !- Heating Design Air Flow Method
  ,                                       !- Heating Design Air Flow Rate {m3/s}
  ,                                       !- Heating Maximum Air Flow per Zone Floor Area {m3/s-m2}
  ,                                       !- Heating Maximum Air Flow {m3/s}
  ,                                       !- Heating Maximum Air Flow Fraction
  No,                                     !- Account for Dedicated Outdoor Air System
  NeutralSupplyAir,                       !- Dedicated Outdoor Air System Control Strategy
  autosize,                               !- Dedicated Outdoor Air Low Setpoint Temperature for Design {C}
  autosize,                               !- Dedicated Outdoor Air High Setpoint Temperature for Design {C}
  Sensible Load Only No Latent Load,      !- Zone Load Sizing Method
  HumidityRatioDifference,                !- Zone Latent Cooling Design Supply Air Humidity Ratio Input Method
  ,                                       !- Zone Dehumidification Design Supply Air Humidity Ratio {kgWater/kgDryAir}
  0.005,                                  !- Zone Cooling Design Supply Air Humidity Ratio Difference {kgWater/kgDryAir}
  HumidityRatioDifference,                !- Zone Latent Heating Design Supply Air Humidity Ratio Input Method
  ,                                       !- Zone Humidification Design Supply Air Humidity Ratio {kgWater/kgDryAir}
  0.005,                                  !- Zone Humidification Design Supply Air Humidity Ratio Difference {kgWater/kgDryAir}
  ,                                       !- Zone Humidistat Dehumidification Set Point Schedule Name
  ,                                       !- Zone Humidistat Humidification Set Point Schedule Name
  ,                                       !- Design Zone Air Distribution Effectiveness in Cooling Mode
  ,                                       !- Design Zone Air Distribution Effectiveness in Heating Mode
  ,                                       !- Design Zone Secondary Recirculation Fraction {dimensionless}
  ,                                       !- Design Minimum Zone Ventilation Efficiency {dimensionless}
  Coincident,                             !- Sizing Option
  None,                                   !- Heating Coil Sizing Method
  1;                                      !- Maximum Heating Capacity To Cooling Load Sizing Ratio {W/W}

OS:ZoneHVAC:EquipmentList,
  {af9881fa-11a2-487b-a230-60c608cf6813}, !- Handle
  Zone HVAC Equipment List 1,             !- Name
  {27208eab-72fd-4e5a-8701-23f3b42c9203}; !- Thermal Zone

OS:Rendering:Color,
  {a125cc3b-bd59-4f9e-b660-34b5ff105af4}, !- Handle
  Rendering Color 3,                      !- Name
  95,                                     !- Rendering Red Value
  160,                                    !- Rendering Green Value
  158,                                    !- Rendering Blue Value
  255;                                    !- Rendering Alpha Value

OS:ThermalZone,
  {d7220255-84fc-4a7d-8232-d012d165c824}, !- Handle
  Escalera,                               !- Name
  1,                                      !- Multiplier
  ,                                       !- Ceiling Height {m}
  ,                                       !- Volume {m3}
  ,                                       !- Floor Area {m2}
  ,                                       !- Zone Inside Convection Algorithm
  ,                                       !- Zone Outside Convection Algorithm
  ,                                       !- Zone Conditioning Equipment List Name
  {c5da0f8f-4ac6-407e-ba5e-e233be2ce06b}, !- Zone Air Inlet Port List
  {0cc598e9-ad95-4011-8137-15e6e2a7023d}, !- Zone Air Exhaust Port List
  {3d7754a8-0e20-4e34-83eb-d23136109bf5}, !- Zone Air Node Name
  {d02e2b69-b018-41dd-8286-99904aa869f4}, !- Zone Return Air Port List
  ,                                       !- Primary Daylighting Control Name
  ,                                       !- Fraction of Zone Controlled by Primary Daylighting Control
  ,                                       !- Secondary Daylighting Control Name
  ,                                       !- Fraction of Zone Controlled by Secondary Daylighting Control
  ,                                       !- Illuminance Map Name
  {51909d3a-6bd4-48ee-873b-f781e777ccac}, !- Group Rendering Name
  ,                                       !- Thermostat Name
  No;                                     !- Use Ideal Air Loads

OS:Node,
  {fe39fb8c-202c-423d-adc0-b64e66e0d3fa}, !- Handle
  Node 2,                                 !- Name
  {3d7754a8-0e20-4e34-83eb-d23136109bf5}, !- Inlet Port
  ;                                       !- Outlet Port

OS:Connection,
  {3d7754a8-0e20-4e34-83eb-d23136109bf5}, !- Handle
  {d7220255-84fc-4a7d-8232-d012d165c824}, !- Source Object
  11,                                     !- Outlet Port
  {fe39fb8c-202c-423d-adc0-b64e66e0d3fa}, !- Target Object
  2;                                      !- Inlet Port

OS:PortList,
  {c5da0f8f-4ac6-407e-ba5e-e233be2ce06b}, !- Handle
  {d7220255-84fc-4a7d-8232-d012d165c824}; !- HVAC Component

OS:PortList,
  {0cc598e9-ad95-4011-8137-15e6e2a7023d}, !- Handle
  {d7220255-84fc-4a7d-8232-d012d165c824}; !- HVAC Component

OS:PortList,
  {d02e2b69-b018-41dd-8286-99904aa869f4}, !- Handle
  {d7220255-84fc-4a7d-8232-d012d165c824}; !- HVAC Component

OS:Sizing:Zone,
  {e6a35cca-c21e-4e89-a526-0a61f1a71bed}, !- Handle
  {d7220255-84fc-4a7d-8232-d012d165c824}, !- Zone or ZoneList Name
  SupplyAirTemperature,                   !- Zone Cooling Design Supply Air Temperature Input Method
  14,                                     !- Zone Cooling Design Supply Air Temperature {C}
  11.11,                                  !- Zone Cooling Design Supply Air Temperature Difference {deltaC}
  SupplyAirTemperature,                   !- Zone Heating Design Supply Air Temperature Input Method
  40,                                     !- Zone Heating Design Supply Air Temperature {C}
  11.11,                                  !- Zone Heating Design Supply Air Temperature Difference {deltaC}
  0.0085,                                 !- Zone Cooling Design Supply Air Humidity Ratio {kg-H2O/kg-air}
  0.008,                                  !- Zone Heating Design Supply Air Humidity Ratio {kg-H2O/kg-air}
  ,                                       !- Zone Heating Sizing Factor
  ,                                       !- Zone Cooling Sizing Factor
  DesignDay,                              !- Cooling Design Air Flow Method
  ,                                       !- Cooling Design Air Flow Rate {m3/s}
  ,                                       !- Cooling Minimum Air Flow per Zone Floor Area {m3/s-m2}
  ,                                       !- Cooling Minimum Air Flow {m3/s}
  ,                                       !- Cooling Minimum Air Flow Fraction
  DesignDay,                              !- Heating Design Air Flow Method
  ,                                       !- Heating Design Air Flow Rate {m3/s}
  ,                                       !- Heating Maximum Air Flow per Zone Floor Area {m3/s-m2}
  ,                                       !- Heating Maximum Air Flow {m3/s}
  ,                                       !- Heating Maximum Air Flow Fraction
  No,                                     !- Account for Dedicated Outdoor Air System
  NeutralSupplyAir,                       !- Dedicated Outdoor Air System Control Strategy
  autosize,                               !- Dedicated Outdoor Air Low Setpoint Temperature for Design {C}
  autosize,                               !- Dedicated Outdoor Air High Setpoint Temperature for Design {C}
  Sensible Load Only No Latent Load,      !- Zone Load Sizing Method
  HumidityRatioDifference,                !- Zone Latent Cooling Design Supply Air Humidity Ratio Input Method
  ,                                       !- Zone Dehumidification Design Supply Air Humidity Ratio {kgWater/kgDryAir}
  0.005,                                  !- Zone Cooling Design Supply Air Humidity Ratio Difference {kgWater/kgDryAir}
  HumidityRatioDifference,                !- Zone Latent Heating Design Supply Air Humidity Ratio Input Method
  ,                                       !- Zone Humidification Design Supply Air Humidity Ratio {kgWater/kgDryAir}
  0.005,                                  !- Zone Humidification Design Supply Air Humidity Ratio Difference {kgWater/kgDryAir}
  ,                                       !- Zone Humidistat Dehumidification Set Point Schedule Name
  ,                                       !- Zone Humidistat Humidification Set Point Schedule Name
  ,                                       !- Design Zone Air Distribution Effectiveness in Cooling Mode
  ,                                       !- Design Zone Air Distribution Effectiveness in Heating Mode
  ,                                       !- Design Zone Secondary Recirculation Fraction {dimensionless}
  ,                                       !- Design Minimum Zone Ventilation Efficiency {dimensionless}
  Coincident,                             !- Sizing Option
  None,                                   !- Heating Coil Sizing Method
  1;                                      !- Maximum Heating Capacity To Cooling Load Sizing Ratio {W/W}

OS:ZoneHVAC:EquipmentList,
  {40c82bdb-a549-416a-bf84-891c9f965515}, !- Handle
  Zone HVAC Equipment List 2,             !- Name
  {d7220255-84fc-4a7d-8232-d012d165c824}; !- Thermal Zone

OS:Rendering:Color,
  {51909d3a-6bd4-48ee-873b-f781e777ccac}, !- Handle
  Rendering Color 4,                      !- Name
  152,                                    !- Rendering Red Value
  152,                                    !- Rendering Green Value
  251,                                    !- Rendering Blue Value
  255;                                    !- Rendering Alpha Value

OS:ThermalZone,
  {4a4afdf6-93d8-4f46-ac06-0ea2c89209e7}, !- Handle
  Bano,                                   !- Name
  1,                                      !- Multiplier
  ,                                       !- Ceiling Height {m}
  ,                                       !- Volume {m3}
  ,                                       !- Floor Area {m2}
  ,                                       !- Zone Inside Convection Algorithm
  ,                                       !- Zone Outside Convection Algorithm
  ,                                       !- Zone Conditioning Equipment List Name
  {36315dcc-661b-4f38-982a-e488dab61129}, !- Zone Air Inlet Port List
  {70e9fdcf-93f0-4375-828e-e69cc04d31ca}, !- Zone Air Exhaust Port List
  {a8fb0420-088c-4dfa-89ef-24ce1728e0ae}, !- Zone Air Node Name
  {c8c3c0ce-c958-4f7f-89b5-20bb1ee6be52}, !- Zone Return Air Port List
  ,                                       !- Primary Daylighting Control Name
  ,                                       !- Fraction of Zone Controlled by Primary Daylighting Control
  ,                                       !- Secondary Daylighting Control Name
  ,                                       !- Fraction of Zone Controlled by Secondary Daylighting Control
  ,                                       !- Illuminance Map Name
  {64743937-e726-4704-bb1f-d8e32619fd42}, !- Group Rendering Name
  ,                                       !- Thermostat Name
  No;                                     !- Use Ideal Air Loads

OS:Node,
  {4e3df4c6-a3eb-4a98-b628-ec4ef0ad1c55}, !- Handle
  Node 3,                                 !- Name
  {a8fb0420-088c-4dfa-89ef-24ce1728e0ae}, !- Inlet Port
  ;                                       !- Outlet Port

OS:Connection,
  {a8fb0420-088c-4dfa-89ef-24ce1728e0ae}, !- Handle
  {4a4afdf6-93d8-4f46-ac06-0ea2c89209e7}, !- Source Object
  11,                                     !- Outlet Port
  {4e3df4c6-a3eb-4a98-b628-ec4ef0ad1c55}, !- Target Object
  2;                                      !- Inlet Port

OS:PortList,
  {36315dcc-661b-4f38-982a-e488dab61129}, !- Handle
  {4a4afdf6-93d8-4f46-ac06-0ea2c89209e7}; !- HVAC Component

OS:PortList,
  {70e9fdcf-93f0-4375-828e-e69cc04d31ca}, !- Handle
  {4a4afdf6-93d8-4f46-ac06-0ea2c89209e7}; !- HVAC Component

OS:PortList,
  {c8c3c0ce-c958-4f7f-89b5-20bb1ee6be52}, !- Handle
  {4a4afdf6-93d8-4f46-ac06-0ea2c89209e7}; !- HVAC Component

OS:Sizing:Zone,
  {b420cb62-1224-4825-a49c-34072140bb24}, !- Handle
  {4a4afdf6-93d8-4f46-ac06-0ea2c89209e7}, !- Zone or ZoneList Name
  SupplyAirTemperature,                   !- Zone Cooling Design Supply Air Temperature Input Method
  14,                                     !- Zone Cooling Design Supply Air Temperature {C}
  11.11,                                  !- Zone Cooling Design Supply Air Temperature Difference {deltaC}
  SupplyAirTemperature,                   !- Zone Heating Design Supply Air Temperature Input Method
  40,                                     !- Zone Heating Design Supply Air Temperature {C}
  11.11,                                  !- Zone Heating Design Supply Air Temperature Difference {deltaC}
  0.0085,                                 !- Zone Cooling Design Supply Air Humidity Ratio {kg-H2O/kg-air}
  0.008,                                  !- Zone Heating Design Supply Air Humidity Ratio {kg-H2O/kg-air}
  ,                                       !- Zone Heating Sizing Factor